Circuit: * E:\projects\Github\Hardware\Electricl circuit(Dependent source) - LTspice\Voltage dependent voltage source.asc

WARNING: Less than two connections to node NC_01.  This node is used by R3.
Direct Newton iteration for .op point succeeded.

Date: Fri Feb 19 18:12:30 2021
Total elapsed time: 0.035 seconds.

tnom = 27
temp = 27
method = trap
totiter = 3
traniter = 0
tranpoints = 0
accept = 0
rejected = 0
matrix size = 8
fillins = 0
solver = Normal
Matrix Compiler1: 210 bytes object code size
Matrix Compiler2: 480 bytes object code size
